/*--------------------------------*- C++ -*----------------------------------*\
| =========                 |                                                 |
| \\      /  F ield         | OpenFOAM: The Open Source CFD Toolbox           |
|  \\    /   O peration     | Version:  v2206                                 |
|   \\  /    A nd           | Website:  www.openfoam.com                      |
|    \\/     M anipulation  |                                                 |
\*---------------------------------------------------------------------------*/
FoamFile
{
    version     2.0;
    format      ascii;
    class       volScalarField;
    object      T;
}
// * * * * * * * * * * * * * * * * * * * * * * * * * * * * * * * * * * * * * //

dimensions      [0 0 0 1 0 0 0];

internalField   uniform 1000;

boundaryField
{

    inlet_air
    {
        type            fixedValue;
        value           uniform 300;
    }

    inlet_fuel
    {
        type            fixedValue;
        value           uniform 300;
    }

    outlet
    {
        type            inletOutlet;
        inletValue      uniform 300;
        value           $internalField;
    }

    fluid_0_to_solid_1
    {
        type            compressible::turbulentTemperatureRadCoupledMixed;
        Tnbr            T;
        kappaMethod     fluidThermo;
        value           uniform 300;
    }
	
    fluid_0_to_solid_2
    {
        type            compressible::turbulentTemperatureRadCoupledMixed;
        Tnbr            T;
        kappaMethod     fluidThermo;
        value           uniform 300;
    }

    wall-fluid_0
    {
        type            zeroGradient;
    }

    "proc.*"
    {
        type            processor;
    }
    frontAndBackPlanes
    {
        type            empty;
    }
	
}


// ************************************************************************* //
