/*--------------------------------*- C++ -*----------------------------------*\
| =========                 |                                                 |
| \\      /  F ield         | OpenFOAM: The Open Source CFD Toolbox           |
|  \\    /   O peration     | Version:  9                                     |
|   \\  /    A nd           | Web:      www.OpenFOAM.org                      |
|    \\/     M anipulation  |                                                 |
\*---------------------------------------------------------------------------*/
FoamFile
{
    version     2.0;
    format      ascii;
    class       dictionary;
    object      blockMeshDict;
}
// * * * * * * * * * * * * * * * * * * * * * * * * * * * * * * * * * * * * * //

convertToMeters 1;

vertices
(
    (-0.01 -0.01 0.00)	
    (0.16 -0.01 0.00)
    (0.16 0.16 0.00)
    (-0.01 0.16 0.00)
    (-0.01 -0.01 0.003)
    (0.16 -0.01 0.003)	
    (0.16 0.16 0.003)
    (-0.01 0.16 0.003)
);

blocks
(
   hex (0 1 2 3 4 5 6 7) (240 240 5) 	        simpleGrading (1 1 1)				//block 1

);

edges
(
);

patches
(  
  patch maxY
(
  (3 7 6 2)
)
  patch minX
(
  (0 4 7 3)
)
  patch maxX
(
  (2 6 5 1)
)
  patch minY
(
  (1 5 4 0)
)
  patch maxZ
(
  (0 3 2 1)
)
  patch minZ
(
  (4 5 6 7)
)

);

mergePatchPairs
(
);

// ************************************************************************* //
