/*--------------------------------*- C++ -*----------------------------------*\
| =========                 |                                                 |
| \\      /  F ield         | OpenFOAM: The Open Source CFD Toolbox           |
|  \\    /   O peration     | Version:  v2206                                 |
|   \\  /    A nd           | Website:  www.openfoam.com                      |
|    \\/     M anipulation  |                                                 |
\*---------------------------------------------------------------------------*/
FoamFile
{
    version     2.0;
    format      ascii;
    class       volScalarField;
    object      T;
}
// * * * * * * * * * * * * * * * * * * * * * * * * * * * * * * * * * * * * * //

dimensions      [ 0 0 0 1 0 0 0 ];

internalField   uniform 300;

boundaryField
{
    #includeEtc "caseDicts/setConstraintTypes"
    walls-solid_1
    {
        type            externalWallHeatFluxTemperature;
        kappaMethod     solidThermo;
        mode            coefficient;
        h               uniform 2.5;
        Ta              uniform 300;
        value           $internalField;
    }

    "solid_1_to_.*"
    {
        type            compressible::turbulentTemperatureRadCoupledMixed;
        value           $internalField;
        Tnbr            T;
        kappaMethod     solidThermo;
    }

    "proc.*"
    {
        type            processor;
    }

    "symmetry.*" 
    {
        type            symmetry;
    }   
    
    frontAndBackPlanes
    {
        type            empty;
    }
	
}


// ************************************************************************* //
