/*--------------------------------*- C++ -*----------------------------------*\
| =========                 |                                                 |
| \\      /  F ield         | OpenFOAM: The Open Source CFD Toolbox           |
|  \\    /   O peration     | Version:  v2012                                 |
|   \\  /    A nd           | Website:  www.openfoam.com                      |
|    \\/     M anipulation  |                                                 |
\*---------------------------------------------------------------------------*/
FoamFile
{
    version     2.0;
    format      ascii;
    class       volScalarField;
    location    "0/fluid_0";
    object      N2;
}
// * * * * * * * * * * * * * * * * * * * * * * * * * * * * * * * * * * * * * //

dimensions      [0 0 0 0 0 0 0];

internalField   uniform 0.79;

boundaryField
{
    #includeEtc "caseDicts/setConstraintTypes"

    inlet
    {
        type            fixedValue;
        value           uniform 0.79;
    }

    outlet
    {
        type            inletOutlet;
        inletValue      $internalField;
        value           $internalField;

    }
	
    fluid_0_to_solid_1
    {
        type            zeroGradient;
    }
	
    fluid_0_to_solid_2
    {
        type            zeroGradient;
    }

    walls_chimney
    {
        type            zeroGradient;
    }

    frontAndBackPlanes
    {
        type            empty;
    }

    "proc.*"
    {
        type            processor;
    }



}


// ************************************************************************* //
