/*--------------------------------*- C++ -*----------------------------------*\
| =========                 |                                                 |
| \\      /  F ield         | OpenFOAM: The Open Source CFD Toolbox           |
|  \\    /   O peration     | Version:  v2012                                 |
|   \\  /    A nd           | Website:  www.openfoam.com                      |
|    \\/     M anipulation  |                                                 |
\*---------------------------------------------------------------------------*/
FoamFile
{
    version     2.0;
    format      ascii;
    class       dictionary;
    object      fvSolution;
}
// * * * * * * * * * * * * * * * * * * * * * * * * * * * * * * * * * * * * * //

solvers
{
    h
    {
        solver           PCG;
        preconditioner   DIC;
        tolerance        1e-06;
        relTol           0.01;
    }

    hFinal
    {
        $h;
        tolerance        1e-07;
        relTol           0.01;
    }
}

PIMPLE
{
    nNonOrthogonalCorrectors 3;
    rDeltaTSmoothingCoeff 1;
    rDeltaTDampingCoeff 1;
}

relaxationFactors
{
    equations
    {
        h               0.2;
    }
}

// ************************************************************************* //
