/*--------------------------------*- C++ -*----------------------------------*\
| =========                 |                                                 |
| \\      /  F ield         | OpenFOAM: The Open Source CFD Toolbox           |
|  \\    /   O peration     | Version:  v2206                                 |
|   \\  /    A nd           | Website:  www.openfoam.com                      |
|    \\/     M anipulation  |                                                 |
\*---------------------------------------------------------------------------*/
FoamFile
{
    version     2.0;
    format      ascii;
    class       dictionary;
    object      thermophysicalProperties;
}
// * * * * * * * * * * * * * * * * * * * * * * * * * * * * * * * * * * * * * //

thermoType
{
    type            heSolidThermo;
    mixture         pureMixture;
    transport       polynomial;
    thermo          hPolynomial;
    equationOfState rhoConst;
    specie          specie;
    energy          sensibleEnthalpy;
}

mixture
{
    specie
    {
        molWeight   29.98;
    }
    transport
    {
        kappaCoeffs<8>   (6.9180002 0.0080559999 1.313e-05 -5.8020002e-09 0 0 0 0);
    }
    thermodynamics
    {
        Hf              0;
        Sf              0;
        CpCoeffs<8>     (345.2 0.3348 -7.90999e-05 0 0 0 0 0);
    }
    equationOfState
    {
        rho     2700;
    }
}


// ************************************************************************* //
