/*--------------------------------*- C++ -*----------------------------------* \
| =========                 |                                                 |
| \\      /  F ield         | OpenFOAM: The Open Source CFD Toolbox           |
|  \\    /   O peration     | Version:  v2206                                 |
|   \\  /    A nd           | Website:  www.openfoam.com                      |
|    \\/     M anipulation  |                                                 |
\*---------------------------------------------------------------------------*/
FoamFile
{
    version     2.0;
    format      ascii;
    class       volScalarField;
    object      G;
}
// * * * * * * * * * * * * * * * * * * * * * * * * * * * * * * * * * * * * * //

dimensions      [1 0 -3 0 0 0 0];

internalField   uniform 0;

boundaryField
{
    "solid_2_to_.*"
    {
        type            MarshakRadiation;
        T               T;
        value           uniform 0;
    }

    walls-solid_2
    {
        type            MarshakRadiation;
        T               uniform T;
        value           uniform 0;
    }

    wall-solid_2
    {
        type            MarshakRadiation;
        T               uniform T;
        value           uniform 0;
    }

    frontAndBackPlanes
    {
        type            empty;
    }

    "proc.*"
    {
        type            processor;
    }
}


// ************************************************************************* //
