/*--------------------------------*- C++ -*----------------------------------*\
| =========                 |                                                 |
| \\      /  F ield         | OpenFOAM: The Open Source CFD Toolbox           |
|  \\    /   O peration     | Version:  v2206                                 |
|   \\  /    A nd           | Website:  www.openfoam.com                      |
|    \\/     M anipulation  |                                                 |
\*---------------------------------------------------------------------------*/
FoamFile
{
    version     2.0;
    format      ascii;
    class       volScalarField;
    object      T;
}
// * * * * * * * * * * * * * * * * * * * * * * * * * * * * * * * * * * * * * //

dimensions      [ 0 0 0 1 0 0 0 ];

internalField   uniform 700;

boundaryField
{
    walls-solid_2
    {
        type            externalWallHeatFluxTemperature;
        mode            coefficient;
        kappaMethod     solidThermo;
        h               10;
        Ta              300;
        emissivity      0.4;
        //qr              qr; // Fix
        value           uniform 300;
    }

    wall-solid_2
    {
        type            externalWallHeatFluxTemperature;
        mode            coefficient;
        kappaMethod     solidThermo;
        h               10;
        Ta              300;
        emissivity      0.4;
        //qr              qr; // Fix
        value           uniform 300;
    }

    "solid_2_to_.*"
    {
        type            compressible::turbulentTemperatureRadCoupledMixed;
        Tnbr            T;
        kappaMethod     solidThermo;
        qrNbr           qr;
        qr              none;
        kappa           none;
        value           $internalField;
    }
	
    frontAndBackPlanes
    {
        type            empty;
    }

    "proc.*"
    {
        type            processor;
    }   
}


// ************************************************************************* //
