/*--------------------------------*- C++ -*----------------------------------*\
| =========                 |                                                 |
| \\      /  F ield         | OpenFOAM: The Open Source CFD Toolbox           |
|  \\    /   O peration     | Version:  v2206                                 |
|   \\  /    A nd           | Website:  www.openfoam.com                      |
|    \\/     M anipulation  |                                                 |
\*---------------------------------------------------------------------------*/
FoamFile
{
    version     2.0;
    format      ascii;
    class       volScalarField;
    object      T;
}
// * * * * * * * * * * * * * * * * * * * * * * * * * * * * * * * * * * * * * //

dimensions      [ 0 0 0 1 0 0 0 ];

internalField   uniform 300;

boundaryField
{

    "wall.*"
    {
        type            externalWallHeatFluxTemperature;
        mode            coefficient;
        kappaMethod     solidThermo;
        Ta              300;
        h               10;
        value           uniform 300;
    }

    "solid_2_to_.*"
    {
        type            compressible::turbulentTemperatureRadCoupledMixed;
        Tnbr            T;
        kappaMethod     solidThermo;
        value           uniform 300;
    }
	
    frontAndBackPlanes
    {
        type            empty;
    }
	
}


// ************************************************************************* //
