/*--------------------------------*- C++ -*----------------------------------*\
| =========                 |                                                 |
| \\      /  F ield         | OpenFOAM: The Open Source CFD Toolbox           |
|  \\    /   O peration     | Version:  8                                     |
|   \\  /    A nd           | Web:      www.OpenFOAM.org                      |
|    \\/     M anipulation  |                                                 |
\*---------------------------------------------------------------------------*/
FoamFile
{
    version     2.0;
    format      ascii;
    class       dictionary;
    object      controlDict;
}
// * * * * * * * * * * * * * * * * * * * * * * * * * * * * * * * * * * * * * //

application     simpleFoam;

startFrom       startTime; 

startTime       0;

stopAt          endTime;

endTime         5000;

deltaT          1;

writeControl    adjustableRunTime;

writeInterval   1000;

purgeWrite      0;


writeFormat     binary;

writePrecision  10;

writeCompression uncompressed;

timeFormat      general;

timePrecision   6;

runTimeModifiable true;

adjustTimeStep  yes;

maxCo           0.2;

functions

(

   massFlow

   {

      type patchMassFlow;

     functionObjectLibs

       (

         "libsimpleFunctionObjects.so"

       );

     verbose true;

     patches

       (

         inlet

         outlet

       );

     factor 1.;

   }
    
);

// ************************************************************************* //
