/*--------------------------------*- C++ -*----------------------------------*\
| =========                 |                                                 |
| \\      /  F ield         | OpenFOAM: The Open Source CFD Toolbox           |
|  \\    /   O peration     | Version:  v2206                                 |
|   \\  /    A nd           | Website:  www.openfoam.com                      |
|    \\/     M anipulation  |                                                 |
\*---------------------------------------------------------------------------*/
FoamFile
{
    version     2.0;
    format      ascii;
    class       dictionary;
    object      fvSolution;
}
// * * * * * * * * * * * * * * * * * * * * * * * * * * * * * * * * * * * * * //

solvers
{
    p_rgh
    {
        solver           GAMG;
        tolerance        1e-8;
        relTol           0.01;
        smoother         GaussSeidel;
        cacheAgglomeration true;
        nCellsInCoarsestLevel 10;
        agglomerator     faceAreaPair;
        mergeLevels      1;
    }
	
    p
    {
        solver          GAMG;
        smoother        GaussSeidel;
        tolerance       1e-7;
        relTol          0.01;
    }
	
    Phi
    {
        $p;
    }	
	
    h
    {
        solver           PBiCGStab;
        preconditioner   DILU;
        tolerance        1e-7;
        relTol           0.05;
    }
	
    "(U|k|omega)"
    {
        solver          smoothSolver;
        smoother        GaussSeidel;
        tolerance       1e-8;
        relTol          0.1;
        nSweeps         1;
    }	
}

SIMPLE
{
    momentumPredictor yes;
    nNonOrthogonalCorrectors 1;
    pRefCell        0;
    pRefValue       100000;
//	rhoMin			800;        
//	rhoMax			1200;

    residualControl
    {
        p_rgh           1e-3;
        U               1e-4;
        h               1e-4;

        // possibly check turbulence fields
        "(k|epsilon|omega)" 5e-3;
    }
}

relaxationFactors
{
    fields
    {
        rho             1.0;
        p_rgh           0.7;
    }
    equations
    {
        U               0.3;
        h               0.7;
        "(k|epsilon|omega|R)" 0.9;
    }
}

potentialFlow
{
    nNonOrthogonalCorrectors 10;
}


// ************************************************************************* //
