/*--------------------------------*- C++ -*----------------------------------*\
| =========                 |                                                 |
| \\      /  F ield         | OpenFOAM: The Open Source CFD Toolbox           |
|  \\    /   O peration     | Version:  v2206                                 |
|   \\  /    A nd           | Website:  www.openfoam.com                      |
|    \\/     M anipulation  |                                                 |
\*---------------------------------------------------------------------------*/
FoamFile
{
    version     2.0;
    format      ascii;
    class       volScalarField;
    object      p;
}
// * * * * * * * * * * * * * * * * * * * * * * * * * * * * * * * * * * * * * //

dimensions      [1 -1 -2 0 0 0 0];

internalField   uniform 101325;

boundaryField
{
    #includeEtc "caseDicts/setConstraintTypes"

    inlet_air
    {
        type            calculated;
        value           $internalField;
    }

    inlet_fuel
    {
        type            calculated;
        value           $internalField;
    }

    outlet
    {
        type            calculated;
        value           $internalField;
    }

    fluid_0_to_solid_1
    {
        type            calculated;
        value           $internalField;
    }

    fluid_0_to_solid_2
    {
        type            calculated;
        value           $internalField;
    }

    walls_fuelinlet
    {
        type            calculated;
        value           $internalField;
    }

    "proc.*"
    {
        type            processor;
    }
    
    "symmetry.*" 
    {
        type            symmetry;
    }

    frontAndBackPlanes
    {
        type            empty;
    }
}


// ************************************************************************* //